build/datapreprocessor/datapreprocessor/datapreprocessor/data/opendss/8500Bus/IEEE8500u_Curr_Elem.Txt

CIRCUIT ELEMENT CURRENTS

(Currents into element from indicated bus)

Power Delivery Elements

  Bus                Phase    Magnitude, A     Angle      (Real)   +j  (Imag)

ELEMENT = "Vsource.SOURCE"
SOURCEBUS                1           60.136 /_  170.7 =    -59.341 +j    9.7439
SOURCEBUS                2           54.781 /_   52.6 =     33.283 +j    43.511
SOURCEBUS                3           59.288 /_  -63.9 =     26.058 +j   -53.254
------------
SOURCEBUS                0           60.136 /_   -9.3 =     59.341 +j   -9.7439
SOURCEBUS                0           54.781 /_ -127.4 =    -33.283 +j   -43.511
SOURCEBUS                0           59.288 /_  116.1 =    -26.058 +j    53.254

ELEMENT = "Line.HVMV_SUB_CONNECTOR"
_HVMV_SUB_LSB            1           553.19 /_  -38.2 =     434.88 +j    -341.9
_HVMV_SUB_LSB            2           535.44 /_ -159.4 =    -501.28 +j   -188.19
_HVMV_SUB_LSB            3            501.9 /_   87.3 =      23.94 +j    501.33
------------
HVMV_SUB_48332           1           553.19 /_  141.8 =    -434.88 +j     341.9
HVMV_SUB_48332           2           535.44 /_   20.6 =     501.28 +j    188.19
HVMV_SUB_48332           3            501.9 /_  -92.7 =     -23.94 +j   -501.33

ELEMENT = "Line.LN5502549-1"
M1009763                 2           1.9602 /_  177.9 =    -1.9589 +j  0.072431
------------
L2673322                 2           1.9603 /_   -2.1 =      1.959 +j -0.072977

ELEMENT = "Line.LN6259988-1"
M1069148                 3           1.4554 /_   65.4 =    0.60672 +j    1.3229
------------
L2673309                 3           1.4559 /_ -114.7 =   -0.60859 +j   -1.3226

ELEMENT = "Line.LN6077796-1"
M1069588                 2           1.6967 /_  179.6 =    -1.6967 +j  0.011363
------------
L2804270                 2           1.6967 /_   -0.4 =     1.6967 +j -0.011554

ELEMENT = "Line.LN5835135-2"
M3036164                 2           16.645 /_  178.1 =    -16.636 +j   0.54465
------------
L2935553                 2           16.645 /_   -1.9 =     16.636 +j  -0.54544

ELEMENT = "Line.LN5896826-1"
M1209749                 2          0.83164 /_ -171.3 =   -0.82202 +j  -0.12609
------------
L2748840                 2          0.83258 /_    8.5 =    0.82349 +j   0.12272

ELEMENT = "Line.LN5714038-1"
M1108264                 2            2.203 /_ -175.1 =    -2.1949 +j  -0.18889
------------
M1108263                 2           2.2035 /_    4.9 =     2.1955 +j   0.18722

ELEMENT = "Line.LN5653457-1"
L3085398                 1           20.026 /_  -59.7 =     10.095 +j   -17.296
L3085398                 2           42.189 /_  177.9 =     -42.16 +j     1.559
L3085398                 3           16.041 /_   64.6 =     6.8704 +j    14.495
------------
M1026891                 1           20.027 /_  120.3 =    -10.093 +j    17.297
M1026891                 2            42.19 /_   -2.1 =     42.161 +j   -1.5613
M1026891                 3           16.041 /_ -115.4 =    -6.8726 +j   -14.494

ELEMENT = "Line.LN5835173-1"
L3216367                 1           28.549 /_  -59.1 =     14.652 +j   -24.503
L3216367                 2            63.65 /_  178.0 =    -63.613 +j    2.1799
L3216367                 3           48.667 /_   64.0 =     21.344 +j    43.737
------------
M1069468                 1            28.55 /_  120.9 =    -14.651 +j    24.504
M1069468                 2            63.65 /_   -2.0 =     63.613 +j   -2.1811
M1069468                 3           48.667 /_ -116.0 =    -21.345 +j   -43.737

ELEMENT = "Line.LN6321415-1"
M1142800                 2           1.4335 /_ -173.7 =     -1.425 +j  -0.15612
------------
M1142799                 2            1.434 /_    6.2 =     1.4256 +j   0.15458

ELEMENT = "Line.LN5565092-1"
M1047592                 3            2.181 /_   64.6 =    0.93683 +j    1.9695
------------
P827512                  3            2.181 /_ -115.4 =    -0.9369 +j   -1.9695

ELEMENT = "Line.LN6073648-1"
M1047339                 1           3.0845 /_  -55.7 =     1.7381 +j   -2.5482
------------
P895104                  1           3.0845 /_  124.3 =     -1.738 +j    2.5483

ELEMENT = "Line.LN5774457-1"
M1026915                 1            30.06 /_  -59.8 =     15.109 +j   -25.988
M1026915                 2           24.115 /_  178.1 =    -24.101 +j   0.81281
M1026915                 3           23.125 /_   64.6 =     9.9352 +j    20.882
------------
M1026920                 1           30.061 /_  120.2 =    -15.108 +j    25.988
M1026920                 2           24.115 /_   -1.9 =     24.101 +j  -0.81393
M1026920                 3           23.125 /_ -115.4 =    -9.9363 +j   -20.881

ELEMENT = "Line.LN5534966-3"
N1138596                 1           11.102 /_  -59.3 =     5.6643 +j   -9.5482
------------
L3254207                 1           11.102 /_  120.7 =     -5.664 +j    9.5485

ELEMENT = "Line.LN5859996-1"
M1069464                 2             2.81 /_  178.3 =    -2.8088 +j  0.082855
------------
P873787                  2             2.81 /_   -1.7 =     2.8088 +j -0.082963

ELEMENT = "Line.LN6138610-2"
N1144665                 1           119.19 /_  -59.4 =     60.712 +j   -102.57
N1144665                 2           91.317 /_  178.3 =    -91.276 +j    2.7457
N1144665                 3           105.07 /_   64.4 =     45.464 +j    94.721
------------
M1047515                 1           119.19 /_  120.6 =    -60.711 +j    102.57
M1047515                 2           91.317 /_   -1.7 =     91.276 +j   -2.7464
M1047515                 3           105.07 /_ -115.6 =    -45.465 +j   -94.721

ELEMENT = "Line.LN6258435-3"
N1137002                 1           2.5348 /_  -59.3 =     1.2932 +j   -2.1801
------------
M1047707                 1           2.5353 /_  120.6 =    -1.2921 +j    2.1813

ELEMENT = "Line.LN5804790-1"
L2729406                 3           1.4863 /_   66.3 =     0.5975 +j    1.3609
------------
L2897768                 3           1.4871 /_ -113.8 =   -0.60083 +j   -1.3604

ELEMENT = "Line.LN6900591-14"
L3649301                 1           4.6051 /_  -59.7 =       2.32 +j    -3.978
------------
L3649302                 1           4.6054 /_  120.2 =    -2.3192 +j    3.9788

ELEMENT = "Line.LN6409873-1"
L2970842                 2            10.63 /_ -175.1 =    -10.591 +j  -0.90707
------------
M1089113                 2            10.63 /_    4.9 =     10.591 +j   0.90587

ELEMENT = "Line.LN6014135-1"
M1047312                 1           9.6881 /_  -55.7 =     5.4574 +j   -8.0047
------------
P893163                  1           9.6881 /_  124.3 =    -5.4574 +j    8.0048

ELEMENT = "Line.LN6077784-1"
L2822871                 1           57.904 /_  -59.8 =     29.151 +j   -50.031
L2822871                 2            69.79 /_  178.0 =    -69.746 +j    2.4742
L2822871                 3           42.926 /_   64.6 =     18.399 +j    38.783
------------
M1026872                 1           57.904 /_  120.2 =     -29.15 +j    50.032
M1026872                 2            69.79 /_   -2.0 =     69.746 +j    -2.476
M1026872                 3           42.926 /_ -115.4 =      -18.4 +j   -38.783

ELEMENT = "Line.LN5744338-1"
M1026312                 2           27.524 /_ -177.0 =    -27.487 +j   -1.4207
------------
L2973163                 2           27.524 /_    3.0 =     27.488 +j    1.4199

ELEMENT = "Line.LN6991381-4"
L3728038                 1           5.1119 /_  -59.5 =     2.5925 +j   -4.4057
------------
L3728039                 1           5.1123 /_  120.5 =    -2.5915 +j    4.4067

ELEMENT = "Line.LN5774480-1"
M1069567                 2           32.135 /_  179.6 =    -32.134 +j    0.2164
------------
M1069582                 2           32.135 /_   -0.4 =     32.135 +j  -0.21897

ELEMENT = "Line.LN5986938-3"
N1140830                 1           5.4406 /_  -59.5 =     2.7633 +j   -4.6866
------------
L3216351                 1           5.4406 /_  120.5 =    -2.7632 +j    4.6867

ELEMENT = "Line.LN5894230-1"
L2952007                 3           1.4486 /_   69.9 =    0.49868 +j    1.3601
------------
L2861158                 3           1.4492 /_ -110.2 =   -0.50089 +j   -1.3599

ELEMENT = "Line.LN5683858-3"
N1140827                 1           2.6075 /_  -59.7 =     1.3169 +j   -2.2505
N1140827                 2           4.1983 /_  178.7 =    -4.1972 +j  0.098297
N1140827                 3           2.9602 /_   64.8 =     1.2601 +j    2.6786
------------
M1026726                 1           2.6077 /_  120.3 =    -1.3166 +j    2.2509
M1026726                 2           4.1985 /_   -1.3 =     4.1973 +j -0.098752
M1026726                 3           2.9603 /_ -115.2 =    -1.2606 +j   -2.6785

ELEMENT = "Line.LN5920279-5"
L2730106                 1           351.03 /_  -49.6 =     227.67 +j   -267.18
L2730106                 2           328.52 /_ -171.4 =     -324.8 +j   -49.336
L2730106                 3           226.45 /_   79.1 =     42.838 +j    222.36
------------
N1142099                 1           351.03 /_  130.4 =    -227.67 +j    267.18
N1142099                 2           328.52 /_    8.6 =      324.8 +j    49.335
N1142099                 3           226.45 /_ -100.9 =    -42.839 +j   -222.36

ELEMENT = "Line.LN6439600-1"
M1026658                 1           1.3011 /_  -59.7 =    0.65616 +j   -1.1236
------------
L3172805                 1           1.3016 /_  120.2 =   -0.65483 +j    1.1249

ELEMENT = "Line.LN5589097-1"
P895112                  1           1.9848 /_  -53.8 =     1.1715 +j   -1.6022
------------
L3048962                 1           1.9849 /_  126.2 =    -1.1712 +j    1.6026

ELEMENT = "Line.LN5651975-1"
L2991914                 1           61.624 /_  -59.5 =     31.262 +j   -53.106
L2991914                 2           14.978 /_  178.9 =    -14.976 +j   0.27685
L2991914                 3            33.68 /_   64.8 =     14.332 +j    30.479
------------
M1047503                 1           61.625 /_  120.5 =    -31.262 +j    53.107
M1047503                 2           14.979 /_   -1.1 =     14.976 +j   -0.2778
M1047503                 3            33.68 /_ -115.2 =    -14.333 +j   -30.479

ELEMENT = "Line.LN5865236-1"
M1047751                 1           2.5416 /_  -59.1 =     1.3056 +j   -2.1806
------------
L2973154                 1           2.5416 /_  120.9 =    -1.3055 +j    2.1807

ELEMENT = "Line.LN5593232-1"
L3010565                 3           1.4418 /_   65.5 =    0.59732 +j    1.3122
------------
L2897775                 3           1.4424 /_ -114.6 =   -0.59984 +j   -1.3118

ELEMENT = "Line.LN5740283-1"
M1125955                 3           1.7168 /_   67.1 =    0.66748 +j    1.5817
------------
M1125957                 3           1.7168 /_ -112.9 =    -0.6676 +j   -1.5817

ELEMENT = "Line.LN6106559-1"
M1069640                 2           3.9645 /_  179.6 =    -3.9645 +j  0.024262
------------
L2804269                 2            3.965 /_   -0.4 =     3.9649 +j -0.025948

ELEMENT = "Line.LN5714056-3"
M1026702                 1           51.784 /_  -59.6 =     26.239 +j   -44.644
M1026702                 2           11.493 /_  178.9 =     -11.49 +j   0.22568
M1026702                 3           25.768 /_   64.8 =     10.974 +j    23.314
------------
N1139551                 1           51.785 /_  120.4 =    -26.237 +j    44.646
N1139551                 2           11.494 /_   -1.1 =     11.491 +j  -0.22907
N1139551                 3           25.769 /_ -115.2 =    -10.977 +j   -23.314

ELEMENT = "Line.LN5985355-3"
N1136355                 2           56.066 /_  179.7 =    -56.065 +j   0.33972
------------
L2783231                 2           56.066 /_   -0.3 =     56.065 +j  -0.34094

ELEMENT = "Line.LN5531956-1"
L2748143                 1           1.3017 /_  -58.1 =    0.68707 +j   -1.1056
------------
L3251854                 1            1.302 /_  121.8 =   -0.68626 +j    1.1065

ELEMENT = "Line.LN5650048-1"
M1069610                 2           1.4216 /_  179.6 =    -1.4216 +j  0.009975
------------
M1069600                 2           1.4219 /_   -0.4 =     1.4219 +j -0.011021

ELEMENT = "Line.LN6290203-1"
M1069424                 1            21.93 /_  -59.1 =     11.259 +j   -18.818
M1069424                 2           54.916 /_  178.0 =    -54.882 +j    1.9309
M1069424                 3           39.847 /_   63.9 =     17.506 +j    35.796
------------
L2935549                 1            21.93 /_  120.9 =    -11.258 +j     18.82
L2935549                 2           54.917 /_   -2.0 =     54.883 +j   -1.9335
L2935549                 3           39.848 /_ -116.1 =    -17.508 +j   -35.795

ELEMENT = "Line.LN6134414-1"
P895089                  3           2.8521 /_   65.6 =     1.1764 +j    2.5981
------------
L3235242                 3           2.8524 /_ -114.4 =    -1.1775 +j    -2.598

ELEMENT = "Line.LN6259998-2"
M1026795                 3           1.7529 /_   64.6 =    0.75059 +j    1.5841
------------
N1140522                 3            1.753 /_ -115.4 =   -0.75083 +j    -1.584

ELEMENT = "Line.LN6078767-1"
L3030199                 1           107.21 /_  -31.0 =     91.883 +j   -55.238
L3030199                 2              127 /_ -156.0 =    -116.01 +j   -51.671
L3030199                 3           155.93 /_   81.9 =     21.883 +j    154.39
------------
M1125934                 1           107.21 /_  149.0 =    -91.883 +j    55.239
M1125934                 2              127 /_   24.0 =     116.02 +j     51.67
M1125934                 3           155.93 /_  -98.1 =    -21.884 +j   -154.39

ELEMENT = "Line.LN6017300-1"
M1069189                 3          0.86757 /_   65.4 =    0.36126 +j   0.78877
------------
L2860487                 3          0.86797 /_ -114.7 =   -0.36278 +j  -0.78852

ELEMENT = "Line.LN8979257-2"
221-312488               1           1.3742 /_  -55.3 =      0.783 +j   -1.1293
221-312488               2           1.4559 /_ -176.2 =    -1.4528 +j -0.095787
221-312488               3           1.4445 /_   67.0 =    0.56548 +j    1.3292
------------
M1089183                 1           1.3746 /_  124.7 =    -0.7819 +j    1.1306
M1089183                 2           1.4564 /_    3.7 =     1.4533 +j   0.09413
M1089183                 3            1.445 /_ -113.1 =    -0.5673 +j    -1.329

ELEMENT = "Line.LN81048109-1"
M1108464                 2           4.4362 /_ -176.3 =     -4.427 +j   -0.2855
------------
L3102286                 2           4.4381 /_    3.6 =     4.4294 +j   0.27848

ELEMENT = "Line.293471"
F739845                  1           1.2922 /_  -55.7 =    0.72788 +j   -1.0676
F739845                  2           1.4459 /_ -176.9 =    -1.4437 +j -0.079215
F739845                  3           1.4436 /_   64.9 =    0.61143 +j    1.3077
------------
293471                   1           1.2924 /_  124.3 =   -0.72738 +j    1.0683
293471                   2           1.4461 /_    3.1 =      1.444 +j   0.07844
293471                   3           1.4438 /_ -115.1 =   -0.61223 +j   -1.3075

ELEMENT = "Line.LN5534965-2"
P827499                  1           1.2772 /_  -59.4 =    0.64996 +j   -1.0995
------------
N1139254                 1           1.2772 /_  120.6 =   -0.64989 +j    1.0995

ELEMENT = "Line.LN5655683-1"
M1026657                 1           20.448 /_  -59.6 =     10.338 +j   -17.642
------------
M1026656                 1           20.448 /_  120.4 =    -10.338 +j    17.642

ELEMENT = "Line.LN5686247-1"
M1108299                 2           2.0075 /_ -174.3 =    -1.9977 +j  -0.19791
------------
M1108300                 2           2.0075 /_    5.7 =     1.9977 +j    0.1978

ELEMENT = "Line.LN6048642-1"
L3198355                 2        0.0018926 /_  -69.4 =  0.00066483 +j -0.001772
------------
L2805037                 2       1.819E-012 /_  -90.0 =          0 +j -1.819E-012

ELEMENT = "Line.LN5928544-3"
N1137994                 3           14.707 /_   64.3 =     6.3837 +j    13.249
------------
M1069484                 3           14.707 /_ -115.7 =    -6.3847 +j   -13.249

ELEMENT = "Line.LN6108172-1"
L2860504                 1           2.5914 /_  -59.6 =     1.3108 +j   -2.2355
------------
L2860493                 1           2.5924 /_  120.3 =    -1.3082 +j    2.2381

ELEMENT = "Line.LN5532754-1"
M1026783                 1           56.911 /_  -59.5 =     28.855 +j   -49.053
M1026783                 2           14.983 /_  178.9 =     -14.98 +j   0.29114
M1026783                 3           28.116 /_   64.8 =     11.958 +j    25.447
------------
M1026780                 1           56.911 /_  120.5 =    -28.855 +j    49.054
M1026780                 2           14.983 /_   -1.1 =      14.98 +j  -0.29161
M1026780                 3           28.116 /_ -115.2 =    -11.958 +j   -25.447

ELEMENT = "Line.LN5591834-1"
P895111                  3           3.7337 /_   67.4 =     1.4318 +j    3.4482
------------
L2895496                 3            3.734 /_ -112.6 =    -1.4331 +j   -3.4481

ELEMENT = "Line.LN6347196-2"
N1140819                 1           27.981 /_  -59.5 =     14.188 +j   -24.117
N1140819                 2           10.666 /_  178.8 =    -10.663 +j   0.21424
N1140819                 3           25.769 /_   64.8 =     10.982 +j    23.312
------------
M1026700                 1           27.981 /_  120.5 =    -14.187 +j    24.118
M1026700                 2           10.666 /_   -1.2 =     10.664 +j  -0.21495
M1026700                 3            25.77 /_ -115.2 =    -10.982 +j   -23.312

ELEMENT = "Line.LN5532741-1"
M1089173                 3            9.029 /_   66.4 =     3.6174 +j    8.2727
------------
L2935551                 3           9.0293 /_ -113.6 =    -3.6184 +j   -8.2725

ELEMENT = "Line.LN5804803-1"
M1026344                 1           0.7826 /_  -55.4 =    0.44469 +j  -0.64398
------------
M1026364                 1          0.78393 /_  124.3 =   -0.44132 +j    0.6479

ELEMENT = "Line.LN6169248-1"
L2879070                 1           111.49 /_  -59.7 =     56.182 +j   -96.301
L2879070                 2           74.626 /_  178.0 =     -74.58 +j    2.5926
L2879070                 3            45.82 /_   64.7 =     19.614 +j    41.409
------------
L3216345                 1           111.49 /_  120.3 =    -56.181 +j    96.303
L3216345                 2           74.626 /_   -2.0 =     74.581 +j   -2.5953
L3216345                 3            45.82 /_ -115.3 =    -19.616 +j   -41.409

ELEMENT = "Line.LN5532786-2"
M1069428                 2           2.2584 /_  178.2 =    -2.2573 +j  0.070712
------------
N1139257                 2           2.2585 /_   -1.8 =     2.2574 +j -0.070997

ELEMENT = "Line.LN5744339-1"
L2991919                 1           16.597 /_  -55.7 =     9.3562 +j   -13.709
------------
M1026361                 1           16.597 /_  124.3 =    -9.3553 +j     13.71

ELEMENT = "Line.LN5531255-3"
N1147857                 1           16.951 /_  -59.8 =     8.5168 +j   -14.656
------------
M1009742                 1           16.951 /_  120.2 =    -8.5161 +j    14.656

ELEMENT = "Line.LN5926308-2"
Q14412                   1           40.513 /_  -55.6 =     22.878 +j   -33.435
Q14412                   2           49.511 /_ -176.9 =    -49.439 +j   -2.6763
Q14412                   3            19.22 /_   65.1 =     8.0871 +j    17.436
------------
M1047325                 1           40.513 /_  124.4 =    -22.878 +j    33.436
M1047325                 2           49.511 /_    3.1 =     49.439 +j    2.6754
M1047325                 3            19.22 /_ -114.9 =     -8.088 +j   -17.436

ELEMENT = "Line.LN5683856-3"
N1139263                 1           1.2767 /_  -59.5 =    0.64857 +j   -1.0997
------------
L3048227                 1           1.2768 /_  120.5 =   -0.64825 +j    1.1001

ELEMENT = "Line.LN6171502-1"
P827506                  1           2.0391 /_  -59.4 =     1.0387 +j   -1.7546
------------
M1069469                 1           2.0391 /_  120.6 =    -1.0387 +j    1.7547

ELEMENT = "Line.LN5593228-1"
M1027019                 2           1.4157 /_  177.8 =    -1.4146 +j  0.055495
------------
L2785522                 2           1.4159 /_   -2.3 =     1.4148 +j -0.056548

ELEMENT = "Line.LN6380800-1"
L3216338                 2           1.4219 /_  177.7 =    -1.4207 +j  0.057337
------------
L2973146                 2           1.4221 /_   -2.4 =     1.4209 +j -0.058351

ELEMENT = "Line.LN6199525-2"
M3037452                 1          0.52039 /_  -55.6 =    0.29377 +j  -0.42954
------------
L2973164                 1           0.5207 /_  124.2 =   -0.29297 +j   0.43046

ELEMENT = "Line.LN5772710-2"
L3120376                 1           10.203 /_  -59.8 =     5.1384 +j   -8.8151
------------
M1026925                 1           10.204 /_  120.2 =    -5.1373 +j    8.8162

ELEMENT = "Line.LN8961760-1"
M1047612                 3           5.0738 /_   64.8 =     2.1565 +j    4.5926
------------
P828360                  3           5.0739 /_ -115.2 =    -2.1569 +j   -4.5926

ELEMENT = "Line.LN6047556-1"
M1089195                 3           1.4269 /_   65.6 =    0.58942 +j    1.2995
------------
L3141393                 3           1.4274 /_ -114.5 =   -0.59147 +j   -1.2991

ELEMENT = "Line.LN6138603-1"
M1026946                 2           2.2469 /_  178.0 =    -2.2455 +j  0.079898
------------
M1026940                 2           2.2475 /_   -2.1 =      2.246 +j -0.082086

ELEMENT = "Line.LN6108139-1"
M1047471                 2           0.8647 /_  177.8 =   -0.86404 +j  0.033789
------------
L3216349                 2          0.86479 /_   -2.3 =    0.86411 +j -0.034102

ELEMENT = "Line.LN6388581-2"
M1047401                 1          0.78137 /_  -59.3 =    0.39869 +j  -0.67199
------------
L2748132                 1          0.78161 /_  120.6 =   -0.39802 +j   0.67267

ELEMENT = "Line.LN5774460-1"
L3122820                 1          0.77909 /_  -59.7 =    0.39287 +j  -0.67278
------------
L3141398                 1          0.77936 /_  120.2 =   -0.39213 +j   0.67352

ELEMENT = "Line.LN5624387-1"
M1108360                 3           2.1994 /_   66.5 =    0.87862 +j    2.0162
------------
L3048968                 3           2.1996 /_ -113.6 =   -0.87957 +j   -2.0161

ELEMENT = "Line.LN6137087-1"
L2801950                 3           11.604 /_   65.4 =     4.8238 +j    10.554
------------
M1069224                 3           11.605 /_ -114.6 =    -4.8244 +j   -10.554

ELEMENT = "Line.LN6077809-1"
L2766746                 3           14.784 /_   64.3 =     6.4016 +j    13.326
------------
M1027073                 3           14.785 /_ -115.7 =    -6.4035 +j   -13.326

ELEMENT = "Line.LN6440079-1"
L2895496                 3            3.734 /_   67.4 =     1.4331 +j    3.4481
------------
M1142873                 3           3.7343 /_ -112.6 =     -1.434 +j   -3.4479

ELEMENT = "Line.LN5804794-1"
M1069181                 1           11.565 /_  -55.4 =     6.5725 +j   -9.5164
------------
L2973151                 1           11.566 /_  124.6 =    -6.5717 +j    9.5174

ELEMENT = "Line.LN5654484-1"
L3179682                 3           1.4408 /_   66.6 =    0.57137 +j    1.3227
------------
L2786274                 3           1.4409 /_ -113.4 =   -0.57185 +j   -1.3226

ELEMENT = "Line.LN5774465-1"
L3066816                 1           2.5989 /_  -59.3 =     1.3269 +j   -2.2346
------------
M1026667                 1           2.5994 /_  120.7 =    -1.3254 +j    2.2362

ELEMENT = "Line.LN5473349-1"
M1108529                 1           300.65 /_  -49.2 =     196.64 +j   -227.43
M1108529                 2           305.76 /_ -171.3 =    -302.24 +j   -46.278
M1108529                 3           212.08 /_   79.9 =     37.216 +j    208.79
------------
M1108532                 1           300.65 /_  130.8 =    -196.64 +j    227.43
M1108532                 2           305.76 /_    8.7 =     302.24 +j    46.277
M1108532                 3           212.08 /_ -100.1 =    -37.217 +j   -208.79

ELEMENT = "Line.LN6169253-1"
L2766723                 1           1.2942 /_  -59.7 =     0.6537 +j    -1.117
------------
L3122822                 1           1.2945 /_  120.3 =   -0.65301 +j    1.1177

ELEMENT = "Line.LN6350536-1"
L2673312                 1          0.77526 /_  -59.8 =    0.38993 +j  -0.67006
------------
L3235247                 1          0.77602 /_  120.0 =   -0.38785 +j   0.67214

ELEMENT = "Line.LN6048523-1"
M1166391                 3           20.939 /_   69.9 =      7.212 +j    19.658
------------
L3254873                 3            20.94 /_ -110.2 =    -7.2139 +j   -19.658

ELEMENT = "Line.LN5594152-1"
L2861157                 3            23.25 /_   69.9 =     7.9906 +j    21.834
------------
P901951                  3            23.25 /_ -110.1 =    -7.9928 +j   -21.833

ELEMENT = "Line.LN5865248-1"
M1047346                 1           47.454 /_  -55.6 =     26.792 +j   -39.168
M1047346                 2           51.658 /_ -176.9 =    -51.582 +j   -2.8059
M1047346                 3           19.219 /_   65.1 =     8.0795 +j    17.438
------------
M1047345                 1           47.455 /_  124.4 =    -26.791 +j    39.169
M1047345                 2           51.659 /_    3.1 =     51.582 +j    2.8048
M1047345                 3           19.219 /_ -114.9 =    -8.0806 +j   -17.437

ELEMENT = "Line.LN6046143-1"
L2989596                 2           0.5614 /_  179.8 =   -0.56139 +j 0.0021846
------------
L2822873                 2          0.56179 /_   -0.4 =    0.56178 +j -0.0036711

ELEMENT = "Line.LN5803287-1"
M1108328                 3            2.934 /_   66.5 =     1.1708 +j    2.6902
------------
L2875754                 3           2.9341 /_ -113.5 =    -1.1712 +j   -2.6902

ELEMENT = "Line.LN5589094-1"
L2786204                 3           31.895 /_   69.9 =     10.939 +j     29.96
------------
M1209819                 3           31.895 /_ -110.1 =    -10.941 +j    -29.96

ELEMENT = "Line.LN5954983-1"
P901972                  1           16.951 /_  -59.8 =      8.516 +j   -14.656
------------
M1009726                 1           16.951 /_  120.2 =    -8.5149 +j    14.657

ELEMENT = "Line.LN5924696-2"
M1047702                 1          0.75543 /_  -59.2 =    0.38651 +j  -0.64906
------------
N1137001                 1          0.75563 /_  120.7 =   -0.38598 +j   0.64961

ELEMENT = "Line.LN6506311-4"
L2767340                 1      4.8573E-005 /_   51.2 =  3.0458E-005 +j 3.7837E-005
L2767340                 2      5.1871E-005 /_  -68.3 =  1.9196E-005 +j -4.8188E-005
L2767340                 3          0.86144 /_   66.8 =    0.33899 +j   0.79193
------------
M3037449                 1      3.8418E-010 /_  142.7 =  -3.0559E-010 +j 2.3283E-010
M3037449                 2         1.8E-010 /_  -76.0 =  4.3656E-011 +j -1.7462E-010
M3037449                 3          0.86145 /_ -113.2 =   -0.33905 +j  -0.79192

ELEMENT = "Line.LN5653493-1"
M1047457                 2           17.173 /_  177.8 =    -17.161 +j   0.64554
------------
L2710546                 2           17.173 /_   -2.2 =     17.161 +j  -0.64623

ELEMENT = "Line.LN5684836-1"
L2674027                 1           330.72 /_  -49.2 =     216.31 +j   -250.17
L2674027                 2           324.87 /_ -171.3 =    -321.13 +j   -49.176
L2674027                 3           225.33 /_   79.2 =     42.398 +j    221.31
------------
L2692633                 1           330.72 /_  130.8 =     -216.3 +j    250.17
L2692633                 2           324.87 /_    8.7 =     321.13 +j    49.174
L2692633                 3           225.33 /_ -100.8 =      -42.4 +j    -221.3

ELEMENT = "Line.LN5715016-3"
N1142108                 1          0.78018 /_  -53.9 =    0.46001 +j  -0.63014
------------
L2674051                 1          0.78052 /_  126.0 =    -0.4592 +j   0.63114

ELEMENT = "Line.LN6138614-1"
M1069135                 1           56.594 /_   -9.5 =     55.824 +j   -9.3016
M1069135                 2           57.328 /_ -132.0 =    -38.378 +j   -42.588
M1069135                 3           43.451 /_  138.2 =    -32.393 +j    28.959
------------
R18242                   1           56.593 /_  170.5 =    -55.823 +j     9.303
R18242                   2           57.328 /_   48.0 =     38.378 +j    42.586
R18242                   3           43.449 /_  -41.8 =     32.392 +j   -28.959

ELEMENT = "Line.LN6077781-2"
M1047534                 1            260.9 /_  -59.5 =     132.43 +j    -224.8
M1047534                 2           239.89 /_  178.2 =    -239.76 +j    7.7286
M1047534                 3           197.24 /_   64.5 =     84.771 +j     178.1
------------
N1136663                 1            260.9 /_  120.5 =    -132.42 +j     224.8
N1136663                 2           239.89 /_   -1.8 =     239.76 +j   -7.7321
N1136663                 3           197.25 /_ -115.5 =    -84.775 +j    -178.1

ELEMENT = "Line.LN5675121-1"
M1108508                 3          0.56823 /_   66.1 =     0.2306 +j   0.51934
------------
L3097861                 3          0.56866 /_ -114.1 =   -0.23226 +j  -0.51907

ELEMENT = "Line.LN5773046-1"
M1069560                 2            34.98 /_  179.6 =    -34.979 +j   0.23303
------------
M1069567                 2            34.98 /_   -0.4 =      34.98 +j  -0.23439

ELEMENT = "Line.LN6380809-2"
L2973153                 1           23.067 /_  -59.1 =      11.85 +j    -19.79
L2973153                 2           71.754 /_  178.1 =    -71.715 +j    2.3805
L2973153                 3           8.1019 /_   64.8 =     3.4456 +j    7.3327
------------
N1136998                 1           23.067 /_  120.9 =     -11.85 +j     19.79
N1136998                 2           71.754 /_   -1.9 =     71.715 +j   -2.3808
N1136998                 3           8.1019 /_ -115.2 =    -3.4459 +j   -7.3326

ELEMENT = "Line.LN6018326-1"
L2898515                 3           1.7124 /_   68.7 =    0.62183 +j    1.5955
------------
M1166387                 3           1.7127 /_ -111.3 =   -0.62289 +j   -1.5954

ELEMENT = "Line.LN5472356-1"
M1047442                 2          0.57213 /_  177.9 =   -0.57176 +j  0.020607
------------
L3235250                 2          0.57242 /_   -2.2 =    0.57201 +j -0.021681

ELEMENT = "Line.LN6139641-1"
M1142871                 1           400.05 /_  -50.3 =     255.72 +j   -307.65
M1142871                 2           385.73 /_ -172.1 =    -382.07 +j   -53.041
M1142871                 3           267.31 /_   77.2 =     59.078 +j     260.7
------------
M1142874                 1           400.05 /_  129.7 =    -255.72 +j    307.65
M1142874                 2           385.73 /_    7.9 =     382.07 +j     53.04
M1142874                 3           267.31 /_ -102.8 =    -59.079 +j   -260.69

ELEMENT = "Line.LN6018341-1"
L2955081                 1           101.35 /_  -29.6 =     88.096 +j   -50.101
L2955081                 2            115.8 /_ -154.2 =    -104.24 +j   -50.432
L2955081                 3           151.02 /_   82.4 =     19.909 +j     149.7
------------
M1108315                 1           101.35 /_  150.4 =    -88.094 +j    50.104
M1108315                 2            115.8 /_   25.8 =     104.24 +j    50.429
M1108315                 3           151.02 /_  -97.6 =    -19.912 +j    -149.7

ELEMENT = "Line.LN6017302-1"
L2973162                 1           2.0783 /_  -55.4 =     1.1788 +j   -1.7117
L2973162                 2           39.745 /_ -177.0 =     -39.69 +j   -2.0913
L2973162                 3          0.86225 /_   65.4 =    0.35911 +j   0.78391
------------
M1026333                 1           2.0787 /_  124.5 =    -1.1779 +j    1.7128
M1026333                 2           39.746 /_    3.0 =     39.691 +j    2.0899
M1026333                 3          0.86253 /_ -114.7 =   -0.36051 +j  -0.78357

ELEMENT = "Line.LN6199505-1"
M1009832                 2          0.56182 /_  177.8 =   -0.56141 +j  0.021445
------------
L2860479                 2          0.56199 /_   -2.2 =    0.56155 +j -0.022053

ELEMENT = "Line.LN5682327-1"
M1026854                 1           19.253 /_  -59.7 =     9.7045 +j   -16.629
------------
P901894                  1           19.253 /_  120.3 =    -9.7044 +j    16.629

ELEMENT = "Line.LN6290243-1"
M1026485                 2           2.9086 /_ -176.9 =    -2.9042 +j  -0.15958
------------
M1026492                 2           2.9089 /_    3.1 =     2.9045 +j   0.15848

ELEMENT = "Line.X8223_48332_SW"
D6413567-3_INT           1           78.951 /_  -24.4 =     71.911 +j    -32.59
D6413567-3_INT           2           84.419 /_ -148.1 =     -71.68 +j   -44.592
D6413567-3_INT           3           45.911 /_  130.1 =    -29.564 +j    35.126
------------
E182724                  1           78.951 /_  155.6 =    -71.911 +j     32.59
E182724                  2           84.419 /_   31.9 =      71.68 +j    44.592
E182724                  3           45.911 /_  -49.9 =     29.564 +j   -35.126

ELEMENT = "Line.LN6413567-3"
N1139541                 1           78.951 /_  -24.4 =     71.911 +j    -32.59
N1139541                 2           84.419 /_ -148.1 =     -71.68 +j   -44.592
N1139541                 3           45.912 /_  130.1 =    -29.565 +j    35.126
------------
D6413567-3_INT           1           78.951 /_  155.6 =    -71.911 +j     32.59
D6413567-3_INT           2           84.419 /_   31.9 =      71.68 +j    44.592
D6413567-3_INT           3           45.911 /_  -49.9 =     29.564 +j   -35.126

ELEMENT = "Line.LN5591731-3"
M4122658                 1            355.1 /_  -49.6 =     229.98 +j   -270.56
M4122658                 2           328.52 /_ -171.4 =    -324.79 +j   -49.342
M4122658                 3           227.86 /_   79.0 =     43.413 +j    223.69
------------
L2933135                 1            355.1 /_  130.4 =    -229.98 +j    270.56
L2933135                 2           328.52 /_    8.6 =     324.79 +j    49.342
L2933135                 3           227.86 /_ -101.0 =    -43.413 +j   -223.69

ELEMENT = "Line.LN5653470-1"
M1026702                 1           1.2853 /_  -59.5 =    0.65147 +j    -1.108
M1026702                 2           1.3875 /_  178.7 =    -1.3871 +j  0.031444
M1026702                 3           1.4735 /_   64.7 =    0.62897 +j    1.3325
------------
L2729414                 1           1.2857 /_  120.4 =   -0.65054 +j     1.109
L2729414                 2           1.3879 /_   -1.4 =     1.3875 +j -0.032819
L2729414                 3           1.4737 /_ -115.3 =   -0.63031 +j   -1.3321

ELEMENT = "Line.LN6017316-1"
L2729430                 2            34.63 /_  177.8 =    -34.605 +j    1.3168
------------
L2766742                 2            34.63 /_   -2.2 =     34.605 +j   -1.3186

ELEMENT = "Line.LN5926299-1"
M1026972                 2           2.8696 /_  178.0 =    -2.8678 +j    0.1008
------------
L2860483                 2           2.8699 /_   -2.0 =      2.868 +j  -0.10183

ELEMENT = "Line.LN5683831-1"
L2860490                 1           47.453 /_  -55.6 =     26.793 +j   -39.166
L2860490                 2           51.657 /_ -176.9 =    -51.581 +j   -2.8087
L2860490                 3           23.563 /_   65.1 =     9.9253 +j     21.37
------------
L3104134                 1           47.454 /_  124.4 =    -26.792 +j    39.167
L3104134                 2           51.658 /_    3.1 =     51.581 +j    2.8071
L3104134                 3           23.563 /_ -114.9 =     -9.927 +j    -21.37

ELEMENT = "Line.LN6352700-1"
M1089144                 1           5.3182 /_  -54.5 =     3.0874 +j   -4.3302
------------
P827522                  1           5.3182 /_  125.5 =    -3.0874 +j    4.3302

ELEMENT = "Line.LN6047570-1"
M1089118                 1          0.74859 /_  -55.0 =    0.42942 +j  -0.61318
------------
L3048208                 1           0.7488 /_  124.9 =    -0.4289 +j    0.6138

ELEMENT = "Line.LN5624342-1"
M1108505                 1           332.08 /_  -49.2 =     217.07 +j   -251.31
M1108505                 2           328.52 /_ -171.4 =     -324.8 +j   -49.324
M1108505                 3           225.33 /_   79.2 =     42.392 +j    221.31
------------
L2955047                 1           332.08 /_  130.8 =    -217.07 +j    251.31
L2955047                 2           328.52 /_    8.6 =      324.8 +j    49.322
L2955047                 3           225.33 /_ -100.8 =    -42.394 +j   -221.31

ELEMENT = "Line.LN6259992-1"
M1089148                 1           1.3431 /_  -54.7 =    0.77586 +j   -1.0963
------------
L2766721                 1           1.3433 /_  125.3 =   -0.77534 +j    1.0969

ELEMENT = "Line.LN5841919-1"
M1026745                 2          0.86647 /_  177.8 =   -0.86583 +j  0.033325
------------
L3029183                 2          0.86689 /_   -2.3 =    0.86618 +j -0.034873

ELEMENT = "Line.LN6380811-1"
L2710512                 2           16.468 /_  178.0 =    -16.457 +j   0.58516
------------
M1047828                 2           16.468 /_   -2.0 =     16.458 +j  -0.58756

ELEMENT = "Line.LN5683832-1"
M1047342                 1           1.2862 /_  -55.8 =    0.72323 +j   -1.0636
------------
L3197645                 1           1.2865 /_  124.2 =   -0.72237 +j    1.0646

ELEMENT = "Line.LN6077778-1"
M1069192                 1           1.2644 /_  -55.3 =    0.71984 +j   -1.0395
------------
L3235253                 1           1.2648 /_  124.6 =   -0.71889 +j    1.0406

ELEMENT = "Line.LN5561442-2"
L3214071                 1           398.07 /_  -50.2 =     254.54 +j   -306.05
L3214071                 2           385.73 /_ -172.1 =    -382.07 +j   -53.023
L3214071                 3           262.21 /_   77.4 =     57.103 +j    255.92
------------
M1125952                 1           398.07 /_  129.8 =    -254.54 +j    306.05
M1125952                 2           385.74 /_    7.9 =     382.07 +j    53.021
M1125952                 3           262.21 /_ -102.6 =    -57.105 +j   -255.92

ELEMENT = "Line.LN6259983-1"
M1027101                 2           1.4393 /_  178.0 =    -1.4384 +j  0.050151
------------
L2860480                 2             1.44 /_   -2.1 =      1.439 +j -0.052943

ELEMENT = "Line.LN5865244-1"
L2710517                 1           16.032 /_  -59.6 =     8.1062 +j   -13.832
------------
M1026646                 1           16.033 /_  120.4 =    -8.1056 +j    13.833

ELEMENT = "Line.LN6350555-1"
M1069662                 2          0.85139 /_  179.6 =   -0.85137 +j 0.0062391
------------
L2935547                 2          0.85167 /_   -0.5 =    0.85164 +j -0.007287

ELEMENT = "Line.LN5714039-1"
M1026931                 1           5.6185 /_  -59.8 =     2.8269 +j   -4.8555
------------
L3216336                 1           5.6187 /_  120.2 =    -2.8263 +j    4.8562

ELEMENT = "Line.LN5889821-1"
L3142049                 1           348.31 /_  -49.5 =     226.14 +j   -264.91
L3142049                 2           328.52 /_ -171.4 =     -324.8 +j   -49.333
L3142049                 3           225.89 /_   79.1 =     42.613 +j    221.83
------------
M1108493                 1           348.31 /_  130.5 =    -226.14 +j    264.92
M1108493                 2           328.52 /_    8.6 =      324.8 +j     49.33
M1108493                 3           225.89 /_ -100.9 =    -42.616 +j   -221.83

ELEMENT = "Line.LN5804791-1"
M1069169                 1           63.499 /_  -15.6 =     61.164 +j   -17.059
M1069169                 2           84.418 /_ -148.1 =    -71.681 +j   -44.589
M1069169                 3           45.909 /_  130.1 =    -29.562 +j    35.125
------------
L3010556                 1           63.498 /_  164.4 =    -61.163 +j     17.06
L3010556                 2           84.418 /_   31.9 =     71.682 +j    44.587
L3010556                 3           45.908 /_  -49.9 =      29.56 +j   -35.125

ELEMENT = "Line.LN5653486-1"
L2991933                 3            4.387 /_   64.5 =     1.8889 +j    3.9595
------------
L3122837                 3           4.3874 /_ -115.5 =    -1.8904 +j   -3.9592

ELEMENT = "Line.LN5926286-1"
L3216336                 1           4.3405 /_  -59.8 =     2.1844 +j   -3.7508
------------
L2691936                 1           4.3408 /_  120.2 =    -2.1836 +j    3.7517

ELEMENT = "Line.LN6318859-1"
L2897772                 1       0.00097215 /_   49.2 =  0.00063496 +j 0.00073614
------------
L3101814                 1       7.276E-012 /_   90.0 =          0 +j 7.276E-012

ELEMENT = "Line.LN5926316-1"
L2766732                 2           11.604 /_ -176.8 =    -11.586 +j  -0.64869
------------
M1026485                 2           11.604 /_    3.2 =     11.586 +j   0.64846

ELEMENT = "Line.LN5591703-1"
L2804269                 2            2.548 /_  179.7 =    -2.5479 +j  0.015417
------------
L2989564                 2           2.5483 /_   -0.4 =     2.5482 +j -0.016452

ELEMENT = "Line.LN5531333-1"
M1126016                 1           5.5594 /_  -56.3 =     3.0808 +j   -4.6277
------------
L3120534                 1           5.5595 /_  123.6 =    -3.0804 +j    4.6281

ELEMENT = "Line.LN6047581-1"
M1026330                 2          0.86983 /_ -176.9 =   -0.86858 +j -0.046613
------------
L2766726                 2          0.86996 /_    3.0 =    0.86873 +j  0.046131

ELEMENT = "Line.LN6349077-1"
P901912                  2       0.00067763 /_  -76.4 =  0.00015913 +j -0.00065868
------------
L3195365                 2       2.058E-011 /_  135.0 =  -1.4552E-011 +j 1.4552E-011

ELEMENT = "Line.LN6350574-1"
M1108381                 1           9.5729 /_  -55.3 =     5.4524 +j   -7.8684
M1108381                 2           9.6879 /_ -176.4 =    -9.6689 +j  -0.60683
M1108381                 3           8.6695 /_   66.9 =      3.401 +j    7.9746
------------
L3254237                 1           9.5734 /_  124.7 =    -5.4512 +j    7.8699
L3254237                 2           9.6886 /_    3.6 =     9.6697 +j   0.60488
L3254237                 3           8.6699 /_ -113.1 =     -3.403 +j   -7.9741

ELEMENT = "Line.LN6320343-1"
L2804262                 1            17.22 /_  -59.7 =     8.6792 +j   -14.873
------------
L2841639                 1            17.22 /_  120.3 =    -8.6782 +j    14.874

ELEMENT = "Line.LN81048100-5"
N1230123                 2            27.56 /_ -176.5 =     -27.51 +j   -1.6711
------------
L2708744                 2           27.561 /_    3.5 =     27.511 +j    1.6675

ELEMENT = "Line.LN6348946-1"
M1069519                 2           1.3983 /_  179.8 =    -1.3983 +j  0.003939
------------
P901927                  2           1.3983 /_   -0.2 =     1.3983 +j -0.0040817

ELEMENT = "Line.LN5744351-1"
L2897790                 3           1.4328 /_   65.2 =    0.60097 +j    1.3007
------------
L2935566                 3           1.4331 /_ -114.8 =   -0.60225 +j   -1.3005

ELEMENT = "Line.LN5472342-1"
M1026931                 1          0.76807 /_  -59.8 =    0.38578 +j  -0.66416
------------
L3216337                 1          0.76834 /_  120.1 =   -0.38507 +j   0.66488

ELEMENT = "Line.LN5621849-1"
P901931                  3           3.7101 /_   65.2 =     1.5535 +j    3.3692
------------
M1069548                 3           3.7102 /_ -114.8 =    -1.5536 +j   -3.3692

ELEMENT = "Line.LN6379375-1"
M1010013                 1          0.78138 /_  -60.0 =     0.3901 +j  -0.67703
------------
L3120503                 1          0.78163 /_  119.9 =   -0.38942 +j   0.67771

ELEMENT = "Line.LN6028890-1"
M1089145                 1           2.0113 /_  -54.7 =     1.1637 +j   -1.6405
M1089145                 2           3.0018 /_ -175.3 =    -2.9915 +j  -0.24751
M1089145                 3           2.2147 /_   66.0 =    0.90107 +j    2.0231
------------
L3215385                 1           2.0116 /_  125.3 =    -1.1631 +j    1.6413
L3215385                 2           3.0021 /_    4.7 =     2.9919 +j   0.24659
L3215385                 3           2.2149 /_ -114.0 =   -0.90205 +j   -2.0229

ELEMENT = "Line.LN6380822-1"
M1026854                 1           76.807 /_  -59.8 =      38.68 +j   -66.356
M1026854                 2           72.558 /_  178.0 =    -72.513 +j    2.5513
M1026854                 3           44.376 /_   64.6 =      19.01 +j    40.098
------------
M1026852                 1           76.808 /_  120.2 =    -38.677 +j    66.359
M1026852                 2           72.559 /_   -2.0 =     72.514 +j   -2.5552
M1026852                 3           44.377 /_ -115.4 =    -19.014 +j   -40.097

ELEMENT = "Line.LN5835131-1"
L2935549                 1            21.93 /_  -59.1 =     11.258 +j    -18.82
L2935549                 2           52.794 /_  178.0 =    -52.761 +j    1.8655
L2935549                 3           39.848 /_   63.9 =     17.508 +j    35.795
------------
M1069420                 1           21.931 /_  120.9 =    -11.256 +j    18.822
M1069420                 2           52.795 /_   -2.0 =     52.762 +j   -1.8683
M1069420                 3           39.848 /_ -116.1 =    -17.511 +j   -35.795

ELEMENT = "Line.LN5803262-7"
L3157708                 3          0.58053 /_   64.8 =    0.24737 +j   0.52519
------------
N1137991                 3          0.58059 /_ -115.2 =   -0.24761 +j  -0.52515

ELEMENT = "Line.LN81048089-1"
M1108413                 1           15.894 /_  -55.4 =     9.0332 +j   -13.077
------------
M1108460                 1           15.896 /_  124.6 =    -9.0268 +j    13.085

ELEMENT = "Line.LN6201699-1"
P827532                  1           2.0574 /_  -55.6 =     1.1614 +j   -1.6983
------------
M1047326                 1           2.0575 /_  124.4 =    -1.1613 +j    1.6984

ELEMENT = "Line.LN5746548-1"
E182732                  1           53.835 /_  -59.5 =     27.288 +j   -46.407
E182732                  2           14.986 /_  178.9 =    -14.983 +j   0.30066
E182732                  3           28.118 /_   64.8 =     11.967 +j    25.444
------------
M1026760                 1           53.835 /_  120.5 =    -27.288 +j    46.407
M1026760                 2           14.986 /_   -1.2 =     14.983 +j   -0.3009
M1026760                 3           28.118 /_ -115.2 =    -11.967 +j   -25.444

ELEMENT = "Line.LN5835174-1"
L3048205                 3           35.959 /_   66.4 =     14.378 +j    32.959
------------
M1108361                 3            35.96 /_ -113.6 =    -14.381 +j   -32.959

ELEMENT = "Line.LN6505947-4"
M3036169                 1           17.588 /_  -59.6 =     8.8911 +j   -15.175
------------
L2673317                 1           17.588 /_  120.4 =    -8.8911 +j    15.176

ELEMENT = "Line.LN5683833-1"
L3178981                 2           29.682 /_ -176.6 =    -29.631 +j   -1.7547
------------
M1047368                 2           29.683 /_    3.4 =     29.632 +j    1.7512

ELEMENT = "Line.LN5561439-3"
M1069519                 1           7.2479 /_  -57.9 =     3.8493 +j   -6.1413
M1069519                 2           57.747 /_  179.7 =    -57.746 +j   0.32446
M1069519                 3           5.1293 /_   65.5 =     2.1259 +j     4.668
------------
N1136354                 1           7.2493 /_  122.0 =     -3.846 +j     6.145
N1136354                 2           57.748 /_   -0.3 =     57.747 +j  -0.32937
N1136354                 3           5.1302 /_ -114.5 =    -2.1308 +j   -4.6667

ELEMENT = "Line.LN6109190-1"
L2879794                 1           4.6014 /_  -53.7 =     2.7226 +j   -3.7094
------------
M1142811                 1           4.6015 /_  126.3 =    -2.7223 +j    3.7099

ELEMENT = "Line.LN6258435-2"
M1047702                 1           2.5348 /_  -59.3 =     1.2935 +j   -2.1799
------------
N1137002                 1           2.5348 /_  120.7 =    -1.2932 +j    2.1801

ELEMENT = "Line.LN5804819-1"
M1069565                 2          0.84151 /_  179.9 =    -0.8415 +j  0.001816
------------
L2785536                 2          0.84233 /_   -0.3 =    0.84232 +j -0.0049197

ELEMENT = "Line.LN5593215-1"
L3104114                 2           30.959 /_  177.8 =    -30.936 +j    1.1777
------------
M1009824                 2           30.959 /_   -2.2 =     30.936 +j   -1.1786

ELEMENT = "Line.LN5833717-1"
L2745848                 1           28.547 /_  -59.1 =     14.657 +j   -24.497
L2745848                 2           68.568 /_  178.1 =    -68.529 +j    2.3174
L2745848                 3           48.666 /_   64.0 =     21.336 +j    43.739
------------
L2673308                 1           28.547 /_  120.9 =    -14.656 +j    24.498
L2673308                 2           68.568 /_   -1.9 =     68.529 +j   -2.3191
L2673308                 3           48.666 /_ -116.0 =    -21.338 +j   -43.739

ELEMENT = "Line.LN6199557-1"
L2673308                 1           28.547 /_  -59.1 =     14.656 +j   -24.498
L2673308                 2           66.458 /_  178.1 =    -66.419 +j    2.2577
L2673308                 3           48.666 /_   64.0 =     21.338 +j    43.739
------------
L2991939                 1           28.548 /_  120.9 =    -14.654 +j    24.501
L2991939                 2           66.459 /_   -1.9 =      66.42 +j    -2.261
L2991939                 3           48.667 /_ -116.0 =    -21.341 +j   -43.738

ELEMENT = "Line.LN5744332-1"
L2916606                 3          0.87784 /_   66.4 =    0.35121 +j   0.80452
------------
L2822864                 3          0.87812 /_ -113.7 =   -0.35228 +j  -0.80436

ELEMENT = "Line.LN5558790-1"
M1142851                 1           404.65 /_  -50.3 =     258.46 +j   -311.36
M1142851                 2           385.73 /_ -172.1 =    -382.06 +j   -53.054
M1142851                 3           271.69 /_   77.1 =     60.761 +j    264.81
------------
196-31070                1           404.65 /_  129.7 =    -258.46 +j    311.36
196-31070                2           385.73 /_    7.9 =     382.06 +j    53.054
196-31070                3           271.69 /_ -102.9 =    -60.761 +j   -264.81

ELEMENT = "Line.LN6078692-1"
M1209822                 3           30.467 /_   69.9 =     10.462 +j    28.614
------------
M1209823                 3           30.467 /_ -110.1 =    -10.463 +j   -28.614

ELEMENT = "Line.LN5956482-1"
M1069550                 2           49.537 /_  179.6 =    -49.536 +j   0.30312
------------
M1069551                 2           49.537 /_   -0.4 =     49.536 +j  -0.30318

ELEMENT = "Line.LN5593225-1"
L2860483                 2           1.4354 /_  178.0 =    -1.4346 +j  0.050427
------------
L3141397                 2           1.4358 /_   -2.1 =     1.4349 +j -0.051728

ELEMENT = "Line.LN6900591-26"
L3649299                 1           10.341 /_  -59.7 =     5.2148 +j   -8.9301
------------
M3772794                 1           10.341 /_  120.3 =    -5.2148 +j    8.9301

ELEMENT = "Line.LN5952393-1"
P895106                  2           5.9403 /_ -175.9 =    -5.9252 +j  -0.42343
------------
L3048887                 2           5.9405 /_    4.1 =     5.9254 +j   0.42279

ELEMENT = "Line.LN6350531-1"
M1047824                 2            5.743 /_  178.2 =    -5.7401 +j   0.18207
------------
M1047834                 2           5.7448 /_   -1.9 =     5.7417 +j  -0.18897

ELEMENT = "Line.LN5965099-10"
M1069350                 1           5.0918 /_  -58.7 =     2.6443 +j   -4.3513
M1069350                 2        0.0044532 /_  -74.3 =  0.0012051 +j -0.004287
M1069350                 3           37.501 /_   63.9 =     16.502 +j    33.675
------------
N1144668                 1            5.092 /_  121.3 =    -2.6438 +j    4.3519
N1144668                 2        0.0036425 /_  105.7 =  -0.00098574 +j 0.0035066
N1144668                 3           37.501 /_ -116.1 =    -16.503 +j   -33.675

ELEMENT = "Line.LN6047568-1"
L2879072                 2           34.695 /_  177.9 =    -34.671 +j    1.2788
------------
M1047441                 2           34.696 /_   -2.1 =     34.672 +j   -1.2826

ELEMENT = "Line.LN5926292-1"
M1108274                 2           1.3872 /_ -175.5 =    -1.3829 +j   -0.1093
------------
M1108269                 2           1.3875 /_    4.5 =     1.3832 +j   0.10825

ELEMENT = "Line.LN6380806-1"
L3235244                 1           3.3236 /_  -59.3 =     1.6952 +j   -2.8588
------------
M1069398                 1           3.3239 /_  120.6 =    -1.6944 +j    2.8596

ELEMENT = "Line.LN6341781-3"
N1147862                 1           1.2842 /_  -59.8 =    0.64563 +j   -1.1101
------------
L2685805                 1           1.2846 /_  120.1 =   -0.64451 +j    1.1113

ELEMENT = "Line.LN8979367-1"
M1069247                 1           1.9044 /_  -58.2 =     1.0027 +j   -1.6191
------------
M1069248                 1           1.9066 /_  121.5 =    -0.9965 +j    1.6254

ELEMENT = "Line.LN6018340-1"
L2786273                 2           2.6415 /_ -175.5 =    -2.6333 +j  -0.20805
------------
M1108278                 2            2.642 /_    4.5 =      2.634 +j   0.20625

ELEMENT = "Line.LN6380847-1"
L3254238                 1           26.196 /_  -55.6 =       14.8 +j   -21.615
L3254238                 2           45.793 /_ -176.9 =    -45.727 +j   -2.4522
L3254238                 3           17.197 /_   65.1 =      7.242 +j    15.598
------------
M1047303                 1           26.196 /_  124.4 =    -14.798 +j    21.617
M1047303                 2           45.794 /_    3.1 =     45.728 +j    2.4496
M1047303                 3           17.198 /_ -114.9 =    -7.2446 +j   -15.598

ELEMENT = "Line.LN8961797-1"
M1047633                 3           2.8935 /_   65.0 =     1.2213 +j    2.6231
------------
L2897554                 3           2.8968 /_ -115.2 =    -1.2341 +j   -2.6208

ELEMENT = "Line.LN6077797-1"
M1069627                 2           5.7495 /_  179.5 =    -5.7492 +j  0.053921
------------
L2897791                 2           5.7501 /_   -0.6 =     5.7498 +j -0.056231

ELEMENT = "Line.LN6077773-1"
M1089097                 2             6.24 /_ -175.4 =    -6.2202 +j  -0.49669
------------
M1108270                 2           6.2404 /_    4.6 =     6.2207 +j   0.49531

ELEMENT = "Line.LN5837496-4"
N1142101                 1           1.3687 /_  -56.0 =    0.76552 +j   -1.1346
------------
L2936214                 1           1.3689 /_  124.0 =   -0.76511 +j    1.1351

ELEMENT = "Line.LN5623392-1"
L3066810                 3           4.4167 /_   64.1 =     1.9318 +j    3.9718
------------
L2897769                 3           4.4173 /_ -116.0 =     -1.934 +j   -3.9714

ELEMENT = "Line.LN5624380-1"
M1209758                 2           3.0611 /_ -171.2 =    -3.0252 +j  -0.46699
------------
M1209753                 2           3.0616 /_    8.7 =     3.0261 +j   0.46498

ELEMENT = "Line.LN6422809-2"
M1047528                 1           137.83 /_  -59.6 =     69.723 +j   -118.89
M1047528                 2           148.57 /_  178.1 =    -148.49 +j     4.998
M1047528                 3           90.737 /_   64.8 =     38.704 +j    82.069
------------
L2858166                 1           137.83 /_  120.4 =    -69.723 +j    118.89
L2858166                 2           148.57 /_   -1.9 =     148.49 +j   -4.9981
L2858166                 3           90.737 /_ -115.2 =    -38.704 +j   -82.069

ELEMENT = "Line.LN5799561-1"
M1142843                 1           118.54 /_  -33.3 =     99.123 +j   -65.002
M1142843                 2           136.53 /_ -157.3 =    -125.91 +j   -52.783
M1142843                 3           166.69 /_   81.0 =     26.096 +j    164.63
------------
L3081380                 1           118.54 /_  146.7 =    -99.121 +j    65.005
L3081380                 2           136.53 /_   22.7 =     125.91 +j    52.779
L3081380                 3           166.69 /_  -99.0 =      -26.1 +j   -164.63

ELEMENT = "Line.LN6229818-1"
L2804272                 2          0.84172 /_  179.8 =   -0.84171 +j 0.0035031
------------
L2841641                 2          0.84208 /_   -0.3 =    0.84207 +j -0.0048733

ELEMENT = "Line.LN5593230-1"
M1069393                 2           39.527 /_  177.9 =    -39.501 +j    1.4437
------------
M1069408                 2           39.528 /_   -2.1 =     39.501 +j   -1.4449

ELEMENT = "Line.LN5563901-3"
N1142104                 1           348.31 /_  -49.5 =     226.13 +j   -264.92
N1142104                 2           328.52 /_ -171.4 =     -324.8 +j   -49.326
N1142104                 3           225.33 /_   79.2 =      42.39 +j    221.31
------------
M1108500                 1           348.31 /_  130.5 =    -226.13 +j    264.92
M1108500                 2           328.52 /_    8.6 =      324.8 +j    49.325
M1108500                 3           225.33 /_ -100.8 =    -42.391 +j   -221.31

ELEMENT = "Line.LN6320339-1"
L3216348                 1           4.8435 /_  -59.7 =     2.4455 +j   -4.1808
------------
L2841627                 1           4.8444 /_  120.3 =    -2.4433 +j    4.1831

ELEMENT = "Line.LN5986927-1"
M1026925                 1           1.2736 /_  -59.8 =    0.64085 +j   -1.1006
------------
L2916599                 1           1.2736 /_  120.2 =   -0.64066 +j    1.1008

ELEMENT = "Line.LN6047567-1"
M1047447                 2           1.4305 /_  177.9 =    -1.4296 +j  0.051218
------------
L2954349                 2           1.4308 /_   -2.1 =     1.4298 +j -0.052107

ELEMENT = "Line.LN5714047-1"
L3235246                 2             17.9 /_  178.0 =    -17.889 +j   0.63468
------------
L2710512                 2           17.901 /_   -2.0 =     17.889 +j  -0.63596

ELEMENT = "Line.LN5563934-1"
M1125911                 2           7.1384 /_ -174.1 =    -7.1007 +j  -0.73203
------------
L2711224                 2           7.1388 /_    5.9 =     7.1014 +j   0.73034

ELEMENT = "Line.LN6169249-3"
N1147863                 3           1.4465 /_   64.5 =    0.62237 +j    1.3058
------------
L3122817                 3           1.4465 /_ -115.5 =   -0.62245 +j   -1.3058

ELEMENT = "Line.LN6230800-1"
M1186061                 2            1.386 /_ -171.4 =    -1.3706 +j  -0.20628
------------
L2861223                 2           1.3862 /_    8.5 =     1.3708 +j    0.2057

ELEMENT = "Line.LN5985339-2"
M1069130                 1           2.0393 /_  -55.6 =     1.1521 +j   -1.6827
------------
L3085396                 1           2.0397 /_  124.4 =    -1.1512 +j    1.6838

ELEMENT = "Line.LN5898059-3"
E182730                  1           1.7956 /_  -59.5 =    0.91137 +j   -1.5471
------------
N1142109                 1           1.7957 /_  120.5 =   -0.91108 +j    1.5474

ELEMENT = "Line.LN5956457-2"
M1069417                 1           20.657 /_  -59.1 =     10.598 +j   -17.731
M1069417                 2           50.671 /_  178.0 =    -50.638 +j    1.8087
M1069417                 3            39.85 /_   63.9 =     17.522 +j    35.792
------------
N1138597                 1           20.657 /_  120.9 =    -10.598 +j    17.732
N1138597                 2           50.671 /_   -2.0 =     50.639 +j   -1.8097
N1138597                 3           39.851 /_ -116.1 =    -17.523 +j   -35.791

ELEMENT = "Line.LN5865229-1"
M1026987                 2           14.357 /_  178.1 =    -14.349 +j   0.47199
------------
M1026990                 2           14.357 /_   -1.9 =     14.349 +j  -0.47294

ELEMENT = "Line.LN6018331-1"
M1142832                 1            117.8 /_  -33.1 =     98.652 +j   -64.383
M1142832                 2           136.53 /_ -157.3 =    -125.92 +j   -52.772
M1142832                 3           159.55 /_   81.6 =     23.287 +j    157.84
------------
L3160865                 1            117.8 /_  146.9 =    -98.651 +j    64.385
L3160865                 2           136.53 /_   22.7 =     125.92 +j     52.77
L3160865                 3           159.55 /_  -98.4 =    -23.289 +j   -157.84

ELEMENT = "Line.LN6199535-1"
L2673323                 3           1.4557 /_   64.6 =    0.62524 +j    1.3146
------------
M1009809                 3            1.456 /_ -115.5 =   -0.62648 +j   -1.3143

ELEMENT = "Line.LN5502538-1"
L2822869                 1           59.589 /_  -59.5 =     30.227 +j   -51.354
L2822869                 2           14.979 /_  178.9 =    -14.977 +j   0.28001
L2822869                 3           33.681 /_   64.8 =     14.335 +j    30.478
------------
M1026808                 1            59.59 /_  120.5 =    -30.225 +j    51.355
M1026808                 2            14.98 /_   -1.1 =     14.978 +j  -0.28252
...